&LAYERS_PARM01
 useBolus=.TRUE.,
 layers_name(1) = 'RHO',
 layers_krho(1) = 1,
 layers_bounds(1,1) =28.0,28.5
                     ,29.00,29.5,30.0,30.5
                     ,31.0,31.3,31.50,31.7,31.9,32.1
                     ,32.3,32.5,32.7,32.90,33.1,33.3
                     ,33.5,33.7,33.9,34.1,34.2,34.3
                     ,34.4,34.45,34.5,34.55, 34.61,34.63
                     ,34.65,34.67,34.69,34.71,34.73,34.75,34.8,
&
